5
 BS: 0, Frame: 0, Ebind= -7.535606, esp= 67.55%, Evdw= -2.445606, Eesp= -5.09, occ= 0.003868
Ow      1.023531    6.711311    4.933296
Hw      1.086987    6.245824    5.767278
Hw      0.103581    6.629111    4.681968
L      1.438504    6.416107    4.453033
L      1.199383    7.384319    5.011634
5
 BS: 1, Frame: 1, Ebind= -7.338694, esp= 72.36%, Evdw= -2.028694, Eesp= -5.31, occ= 0.003590
Ow      1.595343    1.938536    7.733099
Hw      1.693871    1.474448    6.901747
Hw      0.674320    1.821098    7.965817
L      1.746522    2.617731    7.656686
L      2.011534    1.660486    8.222459
5
 BS: 2, Frame: 2, Ebind= -6.415500, esp= 61.10%, Evdw= -2.495500, Eesp= -3.92, occ= 0.002439
Ow      3.093861    7.755669    0.667541
Hw      3.160914    8.096064    1.559655
Hw      2.270075    7.268313    0.657918
L      3.632915    7.333212    0.522798
L      3.076814    8.279503    0.203529
5
 BS: 3, Frame: 3, Ebind= -5.328833, esp= 60.24%, Evdw= -2.118833, Eesp= -3.21, occ= 0.002370
Ow      3.667453    2.835518    3.466595
Hw      3.613629    3.304675    2.633992
Hw      2.826928    2.383838    3.542318
L      3.756481    3.283069    3.997417
L      4.195361    2.375913    3.457881
